data/irish_network/psse/SummerNightValley2013.raw
0,   100.00          / PSS/E-30.3    MON, NOV 18 2013  18:10
AITYTFS Summer Night Valley 2013

    10,'F_M         ',  38.0000,1,     0.000,     0.000,   2,   1,1.05408, -18.5552,   2
    11,'FMN LOOP    ',  38.0000,1,     0.000,     0.000,   2,   1,1.05274, -17.8691,   2
    12,'BEDFORD     ',  38.0000,1,     0.000,     0.000,   1,   1,1.04447, -19.9819,   2
    13,'M_R         ',  38.0000,1,     0.000,     0.000,   1,   1,1.04633, -20.4316,   2
    14,'F_I         ',  38.0000,1,     0.000,     0.000,   2,   1,1.03474, -19.5814,   2
    15,'I_M         ',  38.0000,1,     0.000,     0.000,   2,   1,1.03692, -19.1947,   2
  1021,'ARDNACRU    ', 110.0000,1,     0.000,     0.000,   4,   1,1.00915, -12.9176,   1
  1041,'AGHADA      ', 110.0000,1,     0.000,     0.000,   3,   1,0.99986, -13.1093,   1
  1042,'AGHADA      ', 220.0000,1,     0.000,     0.000,   3,   1,1.00000, -12.3905,   1
  1052,'AGHADA_B    ', 220.0000,1,     0.000,     0.000,   3,   1,0.99602, -12.0695,   1
  1061,'ARIGNA      ', 110.0000,1,     0.000,     0.000,   9,   1,1.00284, -13.1545,   2
  1062,'AGH_AT14    ', 220.0000,1,     0.000,     0.000,   3,   1,1.00000, -12.3905,   1
  1071,'AGANNYGA    ', 110.0000,1,     0.000,     0.000,   4,   1,1.01131, -12.5184,   1
  1072,'AGHT2102    ', 220.0000,1,     0.000,     0.000,   3,   1,1.00000, -12.3941,   1
  1081,'AHANE       ', 110.0000,1,     0.000,     0.000,   7,   1,1.01087, -12.7319,   2
  1101,'ANNER       ', 110.0000,1,     0.000,     0.000,   5,   1,0.99413, -15.4682,   5
  1121,'ARKLOW      ', 110.0000,1,     0.000,     0.000,   6,   1,1.01432, -16.5091,   1
  1122,'ARKLOW      ', 220.0000,1,     0.000,     0.000,   6,   1,1.01066, -16.0693,   1
  1141,'ATHLONE     ', 110.0000,1,     0.000,     0.000,   9,   1,0.99560, -13.4653,   1
  1161,'AUGHINIS    ', 110.0000,1,     0.000,     0.000,   7,   1,1.00000, -10.1989,   1
  1181,'ARVA        ', 110.0000,1,     0.000,     0.000,  10,   1,1.00877, -15.1283,   1
  1201,'ARTANE      ', 110.0000,1,     0.000,     0.000,   1,   1,1.03332, -16.9867,   2
  1221,'ATHY        ', 110.0000,1,     0.000,     0.000,   8,   1,1.01455, -15.9862,   1
  1231,'BALLYWAT    ', 110.0000,1,     0.000,     0.000,   6,   1,1.01364, -15.1173,   4
  1251,'BOOLTIAG    ', 110.0000,1,     0.000,     0.000,   4,   1,1.01180, -12.6207,   2
  1271,'BALTRASN    ', 110.0000,1,     0.000,     0.000,  10,   1,1.01897, -16.9992,   1
  1281,'BALLYLIC    ', 110.0000,1,     0.000,     0.000,   3,   1,1.00000, -11.6558,   2
  1301,'BALLYBEG    ', 110.0000,1,     0.000,     0.000,   6,   1,1.01129, -16.9039,   1
  1321,'BLAKE       ', 110.0000,1,     0.000,     0.000,   8,   1,1.00602, -16.7658,   2
  1341,'BINBANE     ', 110.0000,1,     0.000,     0.000,   9,   1,0.99367, -13.6816,   2
  1351,'BARODA      ', 110.0000,1,     0.000,     0.000,   8,   1,1.00322, -16.6642,   1
  1361,'BALLYDIN    ', 110.0000,1,     0.000,     0.000,   5,   1,0.99736, -15.6008,   1
  1381,'BARNAHEL    ', 110.0000,1,     0.000,     0.000,   3,   1,0.99830, -13.1917,   1
  1391,'BARNAHEL    ', 110.0000,1,     0.000,     0.000,   3,   1,0.99488, -13.2188,   1
  1401,'BELLACOR    ', 110.0000,1,     0.000,     0.000,   9,   1,1.01709, -13.7274,   1
  1421,'BLACKROC    ', 110.0000,1,     0.000,     0.000,   1,   1,1.00688, -17.4073,   2
  1441,'BANDON      ', 110.0000,1,     0.000,     0.000,   3,   1,0.99106, -12.9857,   1
  1451,'CLOGHRAN    ', 110.0000,1,     0.000,     0.000,   1,   1,1.01692, -17.3475,   1
  1461,'BARRYMOR    ', 110.0000,1,     0.000,     0.000,   5,   1,0.99638, -13.9688,   2
  1481,'BUTLERST    ', 110.0000,1,     0.000,     0.000,   5,   1,1.00421, -15.9387,   1
  1501,'BRINNY      ', 110.0000,1,     0.000,     0.000,   3,   1,0.99089, -12.9957,   5
  1541,'BANOGE      ', 110.0000,1,     0.000,     0.000,   6,   1,1.01267, -15.9736,   1
  1551,'BOGGERAG    ', 110.0000,1,     0.000,     0.000,   3,   1,1.00000,  -8.9773,   1
  1581,'CABRA       ', 110.0000,1,     0.000,     0.000,   1,   1,1.03321, -17.0002,   2
  1601,'CLASHAVO    ', 110.0000,1,     0.000,     0.000,   3,   1,1.00024, -11.7720,   1
  1602,'CLASHAVO    ', 220.0000,1,     0.000,     0.000,   3,   1,1.00569, -11.1507,   1
  1611,'CLONKEEN    ', 110.0000,1,     0.000,     0.000,   7,   1,1.00105,  -9.0915,   1
  1621,'COOLROE     ', 110.0000,1,     0.000,     0.000,   3,   1,0.99606, -12.9880,   1
  1631,'CORDERRY    ', 110.0000,1,     0.000,     0.000,   9,   1,1.00290, -12.6876,   1
  1641,'CASHLA      ', 110.0000,1,     0.000,     0.000,   9,   1,1.02593, -14.0287,   1
  1642,'CASHLA      ', 220.0000,1,     0.000,     0.000,   9,   1,1.02956, -13.4006,   1
  1651,'CLAHANE     ', 110.0000,1,     0.000,     0.000,   7,   1,1.00784,  -9.2724,   1
  1661,'CASTLEBA    ', 110.0000,1,     0.000,     0.000,   9,   1,1.03000, -14.4950,   1
  1681,'CARRIGAD    ', 110.0000,1,     0.000,     0.000,   3,   1,0.99847, -12.2482,   1
  1691,'CENTRAL     ', 110.0000,1,     0.000,     0.000,   1,   1,1.00738, -17.3396,   1
  1701,'CATH_FAL    ', 110.0000,1,     0.000,     0.000,   9,   1,1.00512, -12.8992,   1
  1711,'CROMCAST    ', 110.0000,1,     0.000,     0.000,   1,   1,1.03535, -17.9383,   1
  1721,'CAHIR       ', 110.0000,1,     0.000,     0.000,   5,   1,0.99532, -14.8622,   1
  1731,'CROMCAST    ', 110.0000,1,     0.000,     0.000,   1,   1,1.03535, -17.9383,   1
  1741,'CARRICKM    ', 110.0000,1,     0.000,     0.000,   2,   1,1.00714, -17.3190,   1
  1742,'CARRICKM    ', 220.0000,1,     0.000,     0.000,   2,   1,1.01110, -16.3357,   1
  1761,'CLIFF       ', 110.0000,1,     0.000,     0.000,   9,   1,1.00514, -12.8996,   1
  1781,'CASTLEFA    ', 110.0000,1,     0.000,     0.000,   7,   1,0.99962, -10.2196,   5
  1801,'COOKSTOW    ', 110.0000,1,     0.000,     0.000,   1,   1,1.00754, -17.3730,   2
  1821,'CLOON       ', 110.0000,1,     0.000,     0.000,   9,   1,1.02138, -14.0362,   1
  1841,'CRANE       ', 110.0000,1,     0.000,     0.000,   6,   1,1.01251, -15.3328,   1
  1861,'CARICKON    ', 110.0000,1,     0.000,     0.000,   9,   1,1.00630, -13.8368,   1
  1871,'COLLEGE     ', 110.0000,1,     0.000,     0.000,   2,   1,1.01871, -17.1932,   1
  1881,'CHARLEVI    ', 110.0000,1,     0.000,     0.000,   3,   1,1.00292, -12.9006,   1
  1901,'CARLOW      ', 110.0000,1,     0.000,     0.000,   6,   1,1.02286, -16.4714,   1
  1921,'COW CROS    ', 110.0000,1,     0.000,     0.000,   3,   1,0.99846, -13.2534,   1
  1931,'CUNGHILL    ', 110.0000,1,     0.000,     0.000,   9,   1,1.00808, -12.8688,   4
  1941,'CUSHALIN    ', 110.0000,1,     0.000,     0.000,   8,   1,1.00000, -13.7839,   1
  1951,'CARROWBE    ', 110.0000,1,     0.000,     0.000,   9,   1,1.02871, -14.8504,   1
  1961,'CASTLEVI    ', 110.0000,1,     0.000,     0.000,   3,   1,0.99816, -13.3785,   1
  1971,'COOMAGEA    ', 110.0000,1,     0.000,     0.000,   7,   1,1.00000,  -8.6465,   4
  1981,'CORRACLA    ', 110.0000,1,     0.000,     0.000,   9,   1,1.00080, -14.9425,   1
  1991,'CASTLEDO    ', 110.0000,1,     0.000,     0.000,   6,   1,1.01129, -15.0265,   1
  2001,'CULLENAG    ', 110.0000,1,     0.000,     0.000,   5,   1,1.00473, -15.6861,   1
  2002,'CULLENAG    ', 220.0000,1,     0.000,     0.000,   5,   1,1.00675, -15.0423,   1
  2021,'CITY WES    ', 110.0000,1,     0.000,     0.000,   1,   1,0.99730, -18.8677,   2
  2041,'CORDUFF     ', 110.0000,1,     0.000,     0.000,   2,   1,1.01897, -17.1407,   1
  2042,'CORDUFF     ', 220.0000,1,     0.000,     0.000,   2,   1,1.02788, -15.9696,   1
  2052,'CORDUFFB    ', 220.0000,1,     0.000,     0.000,   2,   1,1.02788, -15.9696,   1
  2081,'DUNKETTL    ', 110.0000,4,     0.000,     0.000,   3,   1,1.00000,   0.0000,   5
  2101,'DUNDALK     ', 110.0000,1,     0.000,     0.000,  10,   1,1.03163, -15.7196,   2
  2121,'DRUMLINE    ', 110.0000,1,     0.000,     0.000,   4,   1,1.00797, -13.2557,   1
  2131,'DROMADA     ', 110.0000,1,     0.000,     0.000,   3,   1,1.00589,  -9.0624,   1
  2141,'DUNGARVA    ', 110.0000,1,     0.000,     0.000,   5,   1,1.00281, -15.1355,   1
  2161,'DOON        ', 110.0000,1,     0.000,     0.000,   5,   1,0.99489, -15.4349,   1
  2181,'DRYBRIDG    ', 110.0000,1,     0.000,     0.000,  10,   1,1.01982, -16.7145,   1
  2202,'DUNSTOWN    ', 220.0000,1,     0.000,     0.000,   2,   1,1.01633, -17.0849,   1
  2204,'DUNSTOWN    ', 380.0000,1,     0.000,     0.000,   2,   1,1.03841, -16.2516,   1
  2221,'DUNMANWA    ', 110.0000,1,     0.000,     0.000,   3,   1,0.99479, -12.2854,   1
  2231,'DERRYBRI    ', 110.0000,1,     0.000,     0.000,   4,   1,1.01322, -12.2367,   2
  2241,'DALLOW      ', 110.0000,1,     0.000,     0.000,   5,   1,1.00096, -13.6677,   2
  2251,'DARDISTO    ', 110.0000,1,     0.000,     0.000,   1,   1,1.03549, -17.9233,   2
  2261,'DERRYIRO    ', 110.0000,1,     0.000,     0.000,   8,   1,1.01058, -18.2180,   1
  2281,'DALTON      ', 110.0000,1,     0.000,     0.000,   9,   1,1.02771, -14.5344,   1
  2301,'DUNFIRTH    ', 110.0000,1,     0.000,     0.000,   8,   1,1.01284, -17.9646,   2
  2321,'DRUMKEEN    ', 110.0000,1,     0.000,     0.000,   9,   1,1.02031, -10.9234,   1
  2361,'ENNIS       ', 110.0000,1,     0.000,     0.000,   4,   1,1.00986, -13.2425,   1
  2481,'FASS EAS    ', 110.0000,1,     0.000,     0.000,   2,   1,1.00585, -17.4070,   2
  2491,'FASS WES    ', 110.0000,1,     0.000,     0.000,   2,   1,1.00580, -17.4067,   2
  2521,'FLAGFORD    ', 110.0000,1,     0.000,     0.000,   9,   1,1.00656, -13.8185,   1
  2522,'FLAGFORD    ', 220.0000,1,     0.000,     0.000,   9,   1,1.02096, -13.7541,   1
  2541,'FRN ST A    ', 110.0000,1,     0.000,     0.000,   1,   1,1.02236, -18.3634,   2
  2551,'FRN ST B    ', 110.0000,1,     0.000,     0.000,   1,   1,1.01976, -18.1256,   2
  2561,'FIN_URBA    ', 110.0000,1,     0.000,     0.000,   2,   1,1.03335, -16.9270,   2
  2562,'FINGLAS     ', 220.0000,1,     0.000,     0.000,   2,   1,1.02900, -16.0035,   1
  2563,'FINGLAS2    ', 220.0000,1,     0.000,     0.000,   2,   1,1.02900, -16.0035,   1
  2571,'FIN_RURA    ', 110.0000,1,     0.000,     0.000,   2,   1,1.03533, -17.7943,   2
  2581,'KILDONAN    ', 110.0000,1,     0.000,     0.000,   2,   1,1.01811, -17.2657,   2
  2671,'GARVAGH     ', 110.0000,1,     0.000,     0.000,   9,   1,0.99905, -12.3928,   4
  2681,'GILRA       ', 110.0000,1,     0.000,     0.000,   9,   1,1.00362, -14.0032,   2
  2701,'GLASMORE    ', 110.0000,1,     0.000,     0.000,   1,   1,1.03317, -18.2543,   2
  2721,'GRIFFINR    ', 110.0000,1,     0.000,     0.000,   2,   1,1.01087, -17.6554,   2
  2731,'GLANLEE     ', 110.0000,1,     0.000,     0.000,   7,   1,0.99992,  -8.6284,   4
  2741,'GREAT IS    ', 110.0000,1,     0.000,     0.000,   6,   1,1.00688, -15.9129,   1
  2742,'GREAT IS    ', 220.0000,1,     0.000,     0.000,   6,   1,1.00863, -15.5305,   1
  2761,'GRANGE      ', 110.0000,1,     0.000,     0.000,   1,   1,1.03553, -17.9423,   2
  2771,'GARROW      ', 110.0000,1,     0.000,     0.000,   7,   1,1.00180,  -8.8553,   7
  2780,'GALWAY      ', 110.0000,1,     0.000,     0.000,   9,   1,1.02431, -14.3304,   1
  2781,'GALWAY      ', 110.0000,1,     0.000,     0.000,   9,   1,1.02431, -14.3304,   1
  2801,'GOLAGH      ', 110.0000,1,     0.000,     0.000,   9,   1,1.00824, -11.8490,   4
  2821,'GORTAWEE    ', 110.0000,1,     0.000,     0.000,   9,   1,0.99973, -15.2556,   1
  2841,'GORMAN      ', 110.0000,1,     0.000,     0.000,  10,   1,1.01840, -16.5426,   1
  2842,'GORMAN      ', 220.0000,1,     0.000,     0.000,  10,   1,1.02119, -15.8934,   1
  2852,'GLANAGOW    ', 220.0000,1,     0.000,     0.000,   3,   1,0.99561, -12.0432,   1
  2861,'GRANGE C    ', 110.0000,1,     0.000,     0.000,   1,   1,0.99515, -18.9242,   2
  2881,'GLENLARA    ', 110.0000,1,     0.000,     0.000,   3,   1,1.00558, -12.1794,   2
  2941,'HAROLDS     ', 110.0000,1,     0.000,     0.000,   1,   1,1.02259, -18.3592,   2
  2951,'HEUSTON     ', 110.0000,1,     0.000,     0.000,   1,   1,1.01983, -18.1169,   2
  2962,'HUNTSTOW    ', 220.0000,1,     0.000,     0.000,   2,   1,1.02853, -15.9545,   4
  2972,'HUNTSTOW    ', 220.0000,1,     0.000,     0.000,   2,   1,1.02799, -15.9703,   4
  3061,'INISCARR    ', 110.0000,1,     0.000,     0.000,   3,   1,0.99608, -12.8892,   1
  3081,'INCH_CIT    ', 110.0000,1,     0.000,     0.000,   2,   1,1.01983, -18.0956,   2
  3082,'INCHICOR    ', 220.0000,1,     0.000,     0.000,   2,   1,1.01873, -16.9671,   1
  3091,'INCH_COU    ', 110.0000,1,     0.000,     0.000,   2,   1,0.99756, -18.8033,   2
  3101,'IKERRIN     ', 110.0000,1,     0.000,     0.000,   5,   1,0.99793, -14.7585,   2
  3122,'IRISHTOW    ', 220.0000,1,     0.000,     0.000,   2,   1,1.01368, -16.3318,   1
  3200,'KNOCKRAH    ', 110.0000,1,     0.000,     0.000,   3,   1,1.00062, -12.4457,   1
  3201,'KNOCKRAH    ', 110.0000,1,     0.000,     0.000,   3,   1,0.99913, -13.3208,   1
  3202,'KNOCKRAH    ', 220.0000,1,     0.000,     0.000,   3,   1,1.00062, -12.4457,   1
  3203,'KNOCKRAH    ', 220.0000,1,     0.000,     0.000,   3,   1,1.00062, -12.4457,   1
  3209,'KNOCKRAH    ', 110.0000,1,     0.000,     0.000,   3,   1,0.99913, -13.3208,   1
  3221,'KILBARRY    ', 110.0000,1,     0.000,     0.000,   3,   1,0.99679, -13.3547,   1
  3241,'KILTEEL     ', 110.0000,1,     0.000,     0.000,   8,   1,1.00500, -17.2286,   2
  3261,'KILKENNY    ', 110.0000,1,     0.000,     0.000,   6,   1,1.01124, -16.8682,   1
  3281,'KILLONAN    ', 110.0000,1,     0.000,     0.000,   7,   1,1.01089, -12.7265,   1
  3282,'KILLONAN    ', 220.0000,1,     0.000,     0.000,   7,   1,1.00435, -12.2398,   1
  3301,'KNOCKERA    ', 110.0000,1,     0.000,     0.000,   7,   1,1.00120,  -9.4014,   1
  3321,'KNOCKUMB    ', 110.0000,1,     0.000,     0.000,  10,   1,1.01288, -16.8382,   5
  3341,'KELLIS      ', 110.0000,1,     0.000,     0.000,   6,   1,1.02445, -16.5370,   1
  3342,'KELLIS      ', 220.0000,1,     0.000,     0.000,   6,   1,1.00755, -16.4005,   1
  3361,'KILTOY      ', 110.0000,1,     0.000,     0.000,   9,   1,1.02001, -11.0098,   5
  3381,'KINNEGAD    ', 110.0000,1,     0.000,     0.000,   8,   1,1.01092, -18.2028,   1
  3401,'KILLOTER    ', 110.0000,1,     0.000,     0.000,   5,   1,1.00461, -15.9498,   1
  3421,'KILMORE     ', 110.0000,1,     0.000,     0.000,   1,   1,1.03533, -17.9379,   2
  3431,'KILMAHUD    ', 110.0000,1,     0.000,     0.000,   1,   1,0.99486, -18.9432,   1
  3501,'LANESBOR    ', 110.0000,1,     0.000,     0.000,   9,   1,1.00000, -12.6155,   1
  3521,'LOUTHA      ', 110.0000,1,     0.000,     0.000,  10,   1,1.03726, -15.5283,   1
  3522,'LOUTH       ', 220.0000,1,     0.000,     0.000,  10,   1,1.02512, -14.6452,   1
  3541,'LIMERICK    ', 110.0000,1,     0.000,     0.000,   7,   1,1.00727, -12.6121,   1
  3561,'LISDRUM     ', 110.0000,1,     0.000,     0.000,  10,   1,1.01958, -15.5355,   1
  3581,'LETTERKE    ', 110.0000,1,     0.000,     0.000,   9,   1,1.02000, -11.0095,   1
  3601,'LIBERTY     ', 110.0000,1,     0.000,     0.000,   3,   1,0.99639, -13.4066,   2
  3611,'LIBERTY     ', 110.0000,1,     0.000,     0.000,   3,   1,0.99644, -13.4028,   2
  3621,'LISHEEN     ', 110.0000,1,     0.000,     0.000,   5,   1,1.00000, -15.2697,   5
  3641,'LODGEWOO    ', 110.0000,1,     0.000,     0.000,   6,   1,1.01174, -15.1065,   1
  3642,'LODGEWOO    ', 220.0000,1,     0.000,     0.000,   6,   1,1.01128, -15.6716,   1
  3651,'CRORY       ', 110.0000,1,     0.000,     0.000,   5,   1,1.01174, -15.1065,   1
  3751,'MISERY H    ', 110.0000,1,     0.000,     0.000,   1,   1,1.02283, -18.3463,   2
  3761,'MACETOWN    ', 110.0000,1,     0.000,     0.000,   1,   1,1.01777, -17.2766,   1
  3781,'MCDERMOT    ', 110.0000,1,     0.000,     0.000,   1,   1,1.03322, -17.0016,   2
  3801,'MIDLETON    ', 110.0000,1,     0.000,     0.000,   3,   1,0.99843, -13.3578,   1
  3821,'MEATH HI    ', 110.0000,1,     0.000,     0.000,  10,   1,1.02609, -15.7770,   2
  3841,'MAYNOOTH    ', 110.0000,1,     0.000,     0.000,   2,   1,1.01143, -17.6098,   1
  3842,'MAYNOOTH    ', 220.0000,1,     0.000,     0.000,   2,   1,1.01726, -17.1565,   1
  3851,'MAYNOOTH    ', 110.0000,1,     0.000,     0.000,   2,   1,1.01606, -17.4363,   1
  3852,'MAYNOOTH    ', 220.0000,1,     0.000,     0.000,   2,   1,1.01774, -16.4570,   1
  3861,'MILLTOWN    ', 110.0000,1,     0.000,     0.000,   1,   1,1.02311, -18.3381,   2
  3871,'MILLTOWN    ', 110.0000,1,     0.000,     0.000,   1,   1,1.01921, -18.1537,   2
  3881,'MACROOM     ', 110.0000,1,     0.000,     0.000,   3,   1,0.99897, -12.1569,   1
  3901,'MONETEEN    ', 110.0000,1,     0.000,     0.000,   7,   1,1.00427, -12.2464,   1
  3934,'MNYPG1      ', 380.0000,1,     0.000,     6.000,   4,   1,1.06235, -15.1948,   1
  3941,'MONEYPOI    ', 110.0000,1,     0.000,     0.000,   4,   1,1.01315, -12.5348,   1
  3942,'MONEYPOI    ', 220.0000,1,     0.000,     0.000,   4,   1,1.02053,  -8.7567,   1
  3944,'MNYPG3      ', 380.0000,1,     0.000,     6.000,   4,   1,1.06235, -15.1948,   1
  3954,'MNYPG2      ', 380.0000,1,     0.000,     6.000,   4,   1,0.99643,  -5.4689,   1
  3961,'MARINA      ', 110.0000,1,     0.000,     0.000,   3,   1,0.99648, -13.3987,   1
  3981,'MUNGRET     ', 110.0000,1,     0.000,     0.000,   7,   1,1.00413, -12.2555,   5
  3991,'MUNGRET     ', 110.0000,1,     0.000,     0.000,   7,   1,1.00413, -12.2551,   5
  4001,'MULLINGA    ', 110.0000,1,     0.000,     0.000,   9,   1,1.00342, -15.1559,   1
  4021,'MALLOW      ', 110.0000,1,     0.000,     0.000,   3,   1,0.99752, -13.2979,   1
  4041,'MOY         ', 110.0000,1,     0.000,     0.000,   9,   1,1.00995, -13.2354,   1
  4061,'MULLAGHA    ', 110.0000,1,     0.000,     0.000,  10,   1,1.03351, -15.6659,   2
  4071,'MEENTYCA    ', 110.0000,1,     0.000,     0.000,   9,   1,1.02193, -10.6751,   4
  4081,'MONREAD     ', 110.0000,1,     0.000,     0.000,   8,   1,1.00422, -17.0114,   1
  4101,'NEWBURY     ', 110.0000,1,     0.000,     0.000,   1,   1,1.03529, -17.9479,   2
...
0 / END OF BUS DATA, BEGIN LOAD DATA
    10,'LD',1,   2,   1,    21.130,     3.710,     0.000,     0.000,     0.000,     0.000,   2
    11,'LD',1,   2,   1,    11.990,     5.260,     0.000,     0.000,     0.000,     0.000,   2
    12,'LD',1,   1,   1,    21.130,     3.040,     0.000,     0.000,     0.000,     0.000,   2
    13,'LD',1,   1,   1,    25.890,     2.200,     0.000,     0.000,     0.000,     0.000,   2
    14,'LD',1,   2,   1,    19.410,     6.380,     0.000,     0.000,     0.000,     0.000,   2
    15,'LD',1,   2,   1,    16.590,     5.460,     0.000,     0.000,     0.000,     0.000,   2
  1041,'LD',1,   3,   1,     0.470,     0.100,     0.000,     0.000,     0.000,     0.000,   2
  1101,'I ',1,   5,   2,    11.000,     6.000,     0.000,     0.000,     0.000,     0.000,   5
  1101,'MI',0,   5,   2,     5.620,    -1.020,     0.000,     0.000,     0.000,     0.000,   5
  4341,'I ',1,   3,   2,     1.300,     0.390,     0.000,     0.000,     0.000,     0.000,   5
  4901,'I ',1,   6,   2,     2.290,     0.800,     0.000,     0.000,     0.000,     0.000,   5
 10204,'LD',1,   4,   1,     6.860,     0.390,     0.000,     0.000,     0.000,     0.000,   2
 10205,'LD',1,   4,   1,     6.860,     0.390,     0.000,     0.000,     0.000,     0.000,   2
 10470,'HL',1,   3,   1,     5.550,     1.990,     0.000,     0.000,     0.000,     0.000,   1
 10471,'HL',0,   3,   1,    11.990,     4.310,     0.000,     0.000,     0.000,     0.000,   3
 10602,'LD',1,   9,   1,     5.200,     0.080,     0.000,     0.000,     0.000,     0.000,   2
 10801,'LD',1,   7,   1,     0.750,     0.070,     0.000,     0.000,     0.000,     0.000,   2
 11201,'LD',1,   6,   1,     1.800,     0.590,     0.000,     0.000,     0.000,     0.000,   2
 11204,'LD',1,   6,   1,    11.920,     3.920,     0.000,     0.000,     0.000,     0.000,   2
 11404,'LD',1,   9,   1,    18.490,     3.900,     0.000,     0.000,     0.000,     0.000,   2
 12001,'LD',1,   1,   1,     4.220,     0.720,     0.000,     0.000,     0.000,     0.000,   2
 12201,'LD',1,   8,   1,     3.140,     0.220,     0.000,     0.000,     0.000,     0.000,   2
 12702,'LD',1,  10,   1,     3.380,     1.290,     0.000,     0.000,     0.000,     0.000,   2
 12804,'LD',1,   3,   1,     2.530,     0.900,     0.000,     0.000,     0.000,     0.000,   2
 13001,'LD',1,   6,   1,     2.600,     0.750,     0.000,     0.000,     0.000,     0.000,   2
 13204,'LD',1,   8,   1,     6.520,     1.400,     0.000,     0.000,     0.000,     0.000,   2
 13404,'LD',1,   9,   1,    23.710,     4.170,     0.000,     0.000,     0.000,     0.000,   2
 13501,'I ',1,   8,   2,     9.500,     2.850,     0.000,     0.000,     0.000,     0.000,   5
 13601,'I ',1,   5,   2,     2.500,     0.750,     0.000,     0.000,     0.000,     0.000,   5
 13601,'MI',0,   5,   2,     6.710,     2.010,     0.000,     0.000,     0.000,     0.000,   5
 13604,'LD',1,   5,   1,     3.010,     0.780,     0.000,     0.000,     0.000,     0.000,   2
 13802,'LD',1,   3,   1,    15.760,     4.700,     0.000,     0.000,     0.000,     0.000,   2
 13804,'LD',1,   3,   1,     7.210,     0.800,     0.000,     0.000,     0.000,     0.000,   2
 14004,'LD',1,   9,   1,     1.560,     0.550,     0.000,     0.000,     0.000,     0.000,   2
 14204,'LD',1,   1,   1,    18.970,     0.420,     0.000,     0.000,     0.000,     0.000,   2
 14401,'LD',1,   3,   1,     1.820,     0.700,     0.000,     0.000,     0.000,     0.000,   2
 14404,'LD',1,   3,   1,     8.390,     1.880,     0.000,     0.000,     0.000,     0.000,   2
 14502,'I ',1,   1,   2,    23.750,     7.800,     0.000,     0.000,     0.000,     0.000,   5
 14604,'LD',1,   5,   1,     7.820,     2.730,     0.000,     0.000,     0.000,     0.000,   2
 14804,'LD',1,   5,   1,    10.130,     1.220,     0.000,     0.000,     0.000,     0.000,   2
 15001,'I ',1,   3,   2,     4.590,     1.700,     0.000,     0.000,     0.000,     0.000,   5
 15001,'MI',0,   3,   2,     1.580,     0.150,     0.000,     0.000,     0.000,     0.000,   5
 15402,'LD',1,   6,   1,     4.150,     1.370,     0.000,     0.000,     0.000,     0.000,   2
 15801,'LD',1,   1,   1,     2.710,     0.270,     0.000,     0.000,     0.000,     0.000,   2
 16202,'LD',1,   3,   1,     5.750,     0.740,     0.000,     0.000,     0.000,     0.000,   2
 16604,'LD',1,   9,   1,     9.020,     1.070,     0.000,     0.000,     0.000,     0.000,   2
 16901,'LD',1,   1,   1,     1.890,     0.000,     0.000,     0.000,     0.000,     0.000,   2
 17004,'LD',1,   9,   1,     3.830,     1.330,     0.000,     0.000,     0.000,     0.000,   2
 17204,'LD',1,   5,   1,    11.370,     1.880,     0.000,     0.000,     0.000,     0.000,   2
 17404,'LD',1,   2,   1,    21.570,    12.880,     0.000,     0.000,     0.000,     0.000,   2
 17802,'I ',1,   7,   2,    44.000,    13.200,     0.000,     0.000,     0.000,     0.000,   5
 17802,'MI',0,   7,   2,     5.000,     1.500,     0.000,     0.000,     0.000,     0.000,   5
 18001,'LD',1,   1,   1,     1.060,     0.340,     0.000,     0.000,     0.000,     0.000,   2
 18004,'LD',1,   1,   1,    12.800,     0.110,     0.000,     0.000,     0.000,     0.000,   2
 18204,'LD',1,   9,   1,     5.500,     1.110,     0.000,     0.000,     0.000,     0.000,   2
 18402,'LD',1,   6,   1,     5.170,     1.070,     0.000,     0.000,     0.000,     0.000,   2
 18404,'LD',1,   6,   1,     3.310,     0.550,     0.000,     0.000,     0.000,     0.000,   2
 18604,'LD',1,   9,   1,     7.950,     0.530,     0.000,     0.000,     0.000,     0.000,   2
 18701,'LD',1,   2,   1,    11.580,     2.320,     0.000,     0.000,     0.000,     0.000,   2
 18804,'LD',1,   3,   1,     5.200,     1.600,     0.000,     0.000,     0.000,     0.000,   2
 19004,'LD',1,   6,   1,     5.840,     0.060,     0.000,     0.000,     0.000,     0.000,   2
 19204,'LD',1,   3,   1,     3.160,     0.540,     0.000,     0.000,     0.000,     0.000,   2
 19471,'HL',1,   8,   1,     5.400,     1.940,     0.000,     0.000,     0.000,     0.000,   4
 19504,'LD',1,   9,   1,     7.190,     0.850,     0.000,     0.000,     0.000,     0.000,   2
 19601,'LD',1,   3,   1,     9.900,     1.460,     0.000,     0.000,     0.000,     0.000,   2
 20201,'LD',0,   1,   1,    13.770,     5.070,     0.000,     0.000,     0.000,     0.000,   2
 21004,'LD',1,  10,   1,    15.970,     2.330,     0.000,     0.000,     0.000,     0.000,   2
 21204,'LD',1,   4,   1,     9.720,     1.160,     0.000,     0.000,     0.000,     0.000,   2
 21404,'LD',1,   5,   1,    10.770,     0.290,     0.000,     0.000,     0.000,     0.000,   2
 21604,'LD',1,   5,   1,     4.050,     0.580,     0.000,     0.000,     0.000,     0.000,   2
 21804,'LD',1,  10,   1,    19.510,     1.680,     0.000,     0.000,     0.000,     0.000,   2
 22204,'LD',1,   3,   1,     9.760,     1.700,     0.000,     0.000,     0.000,     0.000,   2
 22404,'LD',1,   5,   1,     4.020,     0.440,     0.000,     0.000,     0.000,     0.000,   2
 22501,'I ',1,   1,   2,    10.450,     3.434,     0.000,     0.000,     0.000,     0.000,   5
 22671,'HL',0,   8,   1,     0.300,     0.100,     0.000,     0.000,     0.000,     0.000,   1
 22672,'HL',0,   8,   1,     0.300,     0.100,     0.000,     0.000,     0.000,     0.000,   1
 22804,'LD',1,   9,   1,     6.200,     0.740,     0.000,     0.000,     0.000,     0.000,   2
 23001,'LD',1,   8,   1,     2.530,     0.080,     0.000,     0.000,     0.000,     0.000,   2
 23604,'LD',1,   4,   1,    16.800,     2.450,     0.000,     0.000,     0.000,     0.000,   2
 24804,'LD',1,   2,   1,    13.870,     4.010,     0.000,     0.000,     0.000,     0.000,   2
 25604,'LD',1,   2,   1,    21.270,     4.320,     0.000,     0.000,     0.000,     0.000,   2
 26802,'I ',1,   9,   2,    10.440,     3.130,     0.000,     0.000,     0.000,     0.000,   5
 26802,'MI',0,   9,   2,     0.060,     0.020,     0.000,     0.000,     0.000,     0.000,   5
 27004,'LD',1,   1,   1,    19.630,     2.000,     0.000,     0.000,     0.000,     0.000,   2
 27204,'LD',1,   2,   1,    17.390,     4.160,     0.000,     0.000,     0.000,     0.000,   2
 27404,'LD',1,   6,   1,     5.220,     1.360,     0.000,     0.000,     0.000,     0.000,   2
 27471,'HL',0,   6,   1,     2.990,     1.070,     0.000,     0.000,     0.000,     0.000,   3
 27472,'HL',0,   6,   1,     2.720,     0.980,     0.000,     0.000,     0.000,     0.000,   3
 27473,'HL',0,   6,   1,     7.980,     2.870,     0.000,     0.000,     0.000,     0.000,   3
 27604,'LD',1,   1,   1,    15.670,     2.930,     0.000,     0.000,     0.000,     0.000,   2
 27801,'LD',1,   9,   1,     7.730,     1.410,     0.000,     0.000,     0.000,     0.000,   2
 27804,'LD',1,   9,   1,    21.600,    -1.800,     0.000,     0.000,     0.000,     0.000,   2
 28201,'I ',1,   9,   2,    17.000,     5.100,     0.000,     0.000,     0.000,     0.000,   5
 28201,'MI',0,   9,   2,     3.890,     1.170,     0.000,     0.000,     0.000,     0.000,   5
 28204,'LD',1,   9,   1,     3.160,     1.070,     0.000,     0.000,     0.000,     0.000,   2
 28571,'HL',1,   3,   1,     1.800,     0.640,     0.000,     0.000,     0.000,     0.000,   1
 28601,'I ',1,   1,   2,     9.000,     2.700,     0.000,     0.000,     0.000,     0.000,   5
 28601,'LD',1,   1,   1,     5.520,     0.560,     0.000,     0.000,     0.000,     0.000,   2
 28604,'LD',1,   1,   1,    12.100,     0.950,     0.000,     0.000,     0.000,     0.000,   2
 28611,'I ',1,   1,   2,     9.000,     2.700,     0.000,     0.000,     0.000,     0.000,   5
 28804,'LD',1,   3,   1,     4.630,     1.200,     0.000,     0.000,     0.000,     0.000,   2
 29401,'LD',1,   1,   1,     5.850,     3.170,     0.000,     0.000,     0.000,     0.000,   2
 29501,'LD',1,   1,   1,     1.510,     0.480,     0.000,     0.000,     0.000,     0.000,   2
 29672,'HL',1,   2,   1,     4.200,     1.510,     0.000,     0.000,     0.000,     0.000,   4
 30804,'LD',1,   2,   1,    25.250,     8.330,     0.000,     0.000,     0.000,     0.000,   2
 31004,'LD',1,   5,   1,     8.230,     1.820,     0.000,     0.000,     0.000,     0.000,   2
 31271,'HL',1,   2,   1,     3.360,     1.210,     0.000,     0.000,     0.000,     0.000,   4
 32201,'LD',1,   3,   1,     4.870,     1.960,     0.000,     0.000,     0.000,     0.000,   2
 32204,'LD',1,   3,   1,    21.560,     1.360,     0.000,     0.000,     0.000,     0.000,   2
 32404,'LD',1,   8,   1,     9.180,     4.220,     0.000,     0.000,     0.000,     0.000,   2
 32604,'LD',1,   6,   1,    15.780,     2.470,     0.000,     0.000,     0.000,     0.000,   2
 33004,'LD',1,   7,   1,    12.180,     0.180,     0.000,     0.000,     0.000,     0.000,   2
 33201,'I ',1,  10,   2,    23.000,     6.900,     0.000,     0.000,     0.000,     0.000,   5
 33201,'MI',0,  10,   2,     6.440,     1.930,     0.000,     0.000,     0.000,     0.000,   5
 33801,'I ',1,   8,   2,     4.000,     1.200,     0.000,     0.000,     0.000,     0.000,   5
 33801,'MI',0,   8,   2,     7.730,     2.310,     0.000,     0.000,     0.000,     0.000,   5
 34001,'LD',1,   5,   1,     6.430,     1.410,     0.000,     0.000,     0.000,     0.000,   2
 34201,'LD',1,   1,   1,     8.310,     2.880,     0.000,     0.000,     0.000,     0.000,   2
 34301,'I ',1,   1,   2,    23.750,     7.120,     0.000,     0.000,     0.000,     0.000,   5
 35004,'LD',1,   9,   1,     2.810,     0.560,     0.000,     0.000,     0.000,     0.000,   2
 35074,'HL',1,   9,   1,     6.300,     2.260,     0.000,     0.000,     0.000,     0.000,   3
 35404,'LD',1,   7,   1,    26.120,     2.450,     0.000,     0.000,     0.000,     0.000,   2
 35604,'LD',1,  10,   1,     7.870,     1.120,     0.000,     0.000,     0.000,     0.000,   2
 35804,'LD',1,   9,   1,    21.570,     7.090,     0.000,     0.000,     0.000,     0.000,   2
 36001,'LD',1,   3,   1,     7.230,     2.560,     0.000,     0.000,     0.000,     0.000,   2
 36201,'I ',1,   5,   2,    16.600,     3.600,     0.000,     0.000,     0.000,     0.000,   5
 36201,'MI',0,   5,   2,     2.390,     2.100,     0.000,     0.000,     0.000,     0.000,   5
 37501,'LD',1,   1,   1,     7.500,     0.790,     0.000,     0.000,     0.000,     0.000,   2
 37601,'LD',1,   1,   1,     8.300,     0.630,     0.000,     0.000,     0.000,     0.000,   2
 37602,'I ',1,   1,   2,     5.000,     1.500,     0.000,     0.000,     0.000,     0.000,   5
 37602,'MI',0,   1,   2,     5.440,     1.630,     0.000,     0.000,     0.000,     0.000,   5
 38001,'LD',1,   3,   1,     4.890,     1.140,     0.000,     0.000,     0.000,     0.000,   2
 38004,'LD',1,   3,   1,     2.260,     0.410,     0.000,     0.000,     0.000,     0.000,   2
 38204,'LD',1,  10,   1,     6.690,     2.590,     0.000,     0.000,     0.000,     0.000,   2
 38601,'LD',1,   1,   1,     2.840,     0.630,     0.000,     0.000,     0.000,     0.000,   2
 38701,'LD',1,   1,   1,     2.770,     0.730,     0.000,     0.000,     0.000,     0.000,   2
 38804,'LD',1,   3,   1,     6.340,     0.470,     0.000,     0.000,     0.000,     0.000,   2
 39471,'HL',0,   4,   1,    20.030,     7.210,     0.000,     0.000,     0.000,     0.000,   3
 39472,'HL',1,   4,   1,    11.940,     4.290,     0.000,     0.000,     0.000,     0.000,   3
 39473,'HL',0,   4,   1,    20.030,     7.210,     0.000,     0.000,     0.000,     0.000,   3
 39601,'LD',1,   3,   1,     4.690,     0.750,     0.000,     0.000,     0.000,     0.000,   2
 39675,'HL',0,   3,   1,     5.000,     1.800,     0.000,     0.000,     0.000,     0.000,   3
 39801,'I ',1,   7,   2,    15.000,     4.500,     0.000,     0.000,     0.000,     0.000,   5
 39801,'MI',0,   7,   2,     8.500,     2.550,     0.000,     0.000,     0.000,     0.000,   5
 40001,'LD',1,   9,   1,     3.770,     1.190,     0.000,     0.000,     0.000,     0.000,   2
 40004,'LD',1,   9,   1,     7.320,    -0.850,     0.000,     0.000,     0.000,     0.000,   2
 40204,'LD',1,   3,   1,     8.910,     2.690,     0.000,     0.000,     0.000,     0.000,   2
 40404,'LD',1,   9,   1,     6.770,     0.850,     0.000,     0.000,     0.000,     0.000,   2
 40602,'I ',1,  10,   2,     2.000,     0.600,     0.000,     0.000,     0.000,     0.000,   5
 40602,'MI',0,  10,   2,     5.600,     1.680,     0.000,     0.000,     0.000,     0.000,   5
 40801,'LD',1,   8,   1,     3.180,     0.260,     0.000,     0.000,     0.000,     0.000,   2
 41002,'I ',1,   1,   2,    18.000,     5.900,     0.000,     0.000,     0.000,     0.000,   5
 41102,'I ',1,   1,   2,    24.000,    11.630,     0.000,     0.000,     0.000,     0.000,   5
 42004,'LD',1,   8,   1,    11.670,     2.790,     0.000,     0.000,     0.000,     0.000,   2
 42102,'LD',1,   1,   1,     4.680,     0.260,     0.000,     0.000,     0.000,     0.000,   2
 42204,'LD',1,  10,   1,    13.360,     0.510,     0.000,     0.000,     0.000,     0.000,   2
 42604,'LD',1,   7,   1,     7.540,     2.490,     0.000,     0.000,     0.000,     0.000,   2
 42802,'I ',1,   1,   2,    11.000,     3.300,     0.000,     0.000,     0.000,     0.000,   5
 42802,'MI',0,   1,   2,    15.000,     4.500,     0.000,     0.000,     0.000,     0.000,   5
 43604,'LD',1,   7,   1,     8.990,     0.570,     0.000,     0.000,     0.000,     0.000,   2
 44001,'LD',1,   1,   1,     6.230,     0.380,     0.000,     0.000,     0.000,     0.000,   2
 44804,'LD',1,   8,   1,    10.720,     0.850,     0.000,     0.000,     0.000,     0.000,   2
 44901,'LD',1,   1,   1,     4.100,     0.000,     0.000,     0.000,     0.000,     0.000,   2
 45001,'I ',1,  10,   2,    21.000,     6.300,     0.000,     0.000,     0.000,     0.000,   5
 45001,'MI',0,  10,   2,    11.290,     3.380,     0.000,     0.000,     0.000,     0.000,   5
 45101,'LD',1,   1,   1,     3.820,     0.330,     0.000,     0.000,     0.000,     0.000,   2
 46210,'I ',1,   2,   2,    25.000,     7.500,     0.000,     0.000,     0.000,     0.000,   5
 46210,'MI',0,   2,   2,     9.840,     2.950,     0.000,     0.000,     0.000,     0.000,   5
 46214,'I ',1,   2,   2,    25.000,     7.500,     0.000,     0.000,     0.000,     0.000,   5
 46214,'MI',0,   2,   2,     9.840,     2.950,     0.000,     0.000,     0.000,     0.000,   5
 46224,'I ',1,   2,   2,    25.000,     7.500,     0.000,     0.000,     0.000,     0.000,   5
 46224,'MI',0,   2,   2,     9.840,     2.950,     0.000,     0.000,     0.000,     0.000,   5
 46501,'LD',1,   1,   1,     2.530,     0.980,     0.000,     0.000,     0.000,     0.000,   2
 46804,'LD',1,   7,   1,    10.090,     2.930,     0.000,     0.000,     0.000,     0.000,   2
 47004,'LD',1,   9,   1,     7.500,     4.180,     0.000,     0.000,     0.000,     0.000,   2
 47402,'I ',1,   2,   2,     7.600,     2.280,     0.000,     0.000,     0.000,     0.000,   5
 47402,'MI',0,   2,   2,     7.600,     2.280,     0.000,     0.000,     0.000,     0.000,   5
 47601,'LD',1,   3,   1,     0.990,     0.150,     0.000,     0.000,     0.000,     0.000,   2
 49001,'I ',1,   6,   2,     2.290,     0.680,     0.000,     0.000,     0.000,     0.000,   5
 49474,'HL',1,   5,   1,     4.720,     1.700,     0.000,     0.000,     0.000,     0.000,   3
 49501,'LD',1,   9,   1,     7.340,     0.870,     0.000,     0.000,     0.000,     0.000,   2
 49504,'LD',1,   9,   1,    10.580,     3.170,     0.000,     0.000,     0.000,     0.000,   2
 49604,'LD',1,  10,   1,    14.620,     3.390,     0.000,     0.000,     0.000,     0.000,   2
 49804,'LD',1,   9,   1,    14.980,     0.100,     0.000,     0.000,     0.000,     0.000,   2
 50004,'LD',1,   9,   1,     6.160,     0.140,     0.000,     0.000,     0.000,     0.000,   2
 50276,'HL',0,   2,   1,     9.990,     3.590,     0.000,     0.000,     0.000,     0.000,   3
 50301,'LD',1,   1,   1,     3.440,     1.130,     0.000,     0.000,     0.000,     0.000,   2
 50573,'HL',1,   7,   1,     0.470,     0.170,     0.000,     0.000,     0.000,     0.000,   4
 50574,'HL',1,   7,   1,     0.470,     0.170,     0.000,     0.000,     0.000,     0.000,   4
 50604,'LD',1,   6,   1,     4.940,     0.180,     0.000,     0.000,     0.000,     0.000,   2
 50901,'LD',1,   7,   1,     3.250,     0.770,     0.000,     0.000,     0.000,     0.000,   2
 51301,'LD',1,   1,   1,     2.860,     0.250,     0.000,     0.000,     0.000,     0.000,   2
 51471,'HL',0,   7,   1,     3.000,     1.080,     0.000,     0.000,     0.000,     0.000,   3
 51472,'HL',0,   7,   1,     3.000,     1.080,     0.000,     0.000,     0.000,     0.000,   3
 51473,'HL',0,   7,   1,    15.300,     5.500,     0.000,     0.000,     0.000,     0.000,   3
 51474,'HL',0,   7,   1,    15.300,     5.500,     0.000,     0.000,     0.000,     0.000,   3
 51771,'HL',1,   4,   1,     4.680,     1.680,     0.000,     0.000,     0.000,     0.000,   4
 51801,'LD',1,   3,   1,     5.240,     0.240,     0.000,     0.000,     0.000,     0.000,   2
 51804,'LD',1,   3,   1,    17.500,     3.260,     0.000,     0.000,     0.000,     0.000,   2
 52204,'LD',1,   4,   1,     1.120,     0.360,     0.000,     0.000,     0.000,     0.000,   2
...
0 / END OF LOAD DATA, BEGIN GENERATOR DATA
 10271,'1 ',    21.000,     0.000,    15.000,    -7.000,1.00000,  1021,    34.000,   0.00000,   0.22000,   0.00000,   0.00000,1.00000,0,   15.0,    21.000,     5.000,   3,1.0000
 10272,'2 ',    22.000,     0.000,    15.000,    -7.000,1.00000,  1021,    34.000,   0.00000,   0.22000,   0.00000,   0.00000,1.00000,0,   15.0,    22.000,     5.000,   3,1.0000
 10273,'3 ',    19.000,     0.000,    15.000,    -7.000,1.00000,  1021,    34.000,   0.00000,   0.22000,   0.00000,   0.00000,1.00000,0,   15.0,    19.000,     5.000,   3,1.0000
 10274,'4 ',    24.000,     0.000,    15.000,    -7.000,1.00000,  1021,    34.000,   0.00000,   0.22000,   0.00000,   0.00000,1.00000,0,   15.0,    24.000,     5.000,   3,1.0000
 10275,'3 ',     2.250,     0.000,     0.000,     0.000,1.04000,     0,     8.350,   0.00920,   0.16210,   0.00000,   0.00000,1.00000,1,    2.3,     7.500,     0.000,   7,1.0000
 10276,'2 ',     0.198,     0.000,     0.000,     0.000,1.04000,     0,     0.850,   0.00730,   0.13500,   0.00000,   0.00000,1.00000,1,    0.2,     0.660,     0.000,   7,1.0000
 10470,'1 ',   222.000,   -49.849,   270.000,  -170.000,1.00000,  1062,   500.000,   0.00270,   0.18000,   0.00000,   0.00000,1.00000,0,  250.0,   443.000,   222.000,   1,1.0000
 10471,'1 ',   270.000,     0.000,   159.000,   -75.000,1.00000,  1062,   318.800,   0.00000,   0.22500,   0.00000,   0.00000,1.00000,0,  153.0,   270.000,    40.000,   3,1.0000
 10472,'11',    90.000,     0.000,    60.000,   -30.000,1.00000,  1062,   100.900,   0.00000,   0.12500,   0.00000,   0.00000,1.00000,0,   60.0,    90.000,    13.000,   3,1.0000
 10473,'12',    90.000,     0.000,    60.000,   -30.000,1.00000,  1062,   100.900,   0.00000,   0.12500,   0.00000,   0.00000,1.00000,0,   60.0,    90.000,    13.000,   3,1.0000
 10474,'14',    90.000,     0.000,    60.000,   -30.000,1.00000,  1062,   100.900,   0.00000,   0.12500,   0.00000,   0.00000,1.00000,0,   60.0,    90.000,    13.000,   3,1.0000
 10671,'2 ',     1.440,    -1.940,    -1.940,    -1.940,1.04000,     0,     4.800,   0.02040,   0.33060,   0.00000,   0.00000,1.00000,1,    1.5,     4.800,     0.000,   7,1.0000
 10672,'3 ',     1.500,    -2.000,    -2.000,    -2.000,1.04000,     0,     6.000,   0.02040,   0.33060,   0.00000,   0.00000,1.00000,1,    1.6,     5.000,     0.000,   7,1.0000
 10673,'1 ',     0.360,    -0.480,    -0.480,    -0.480,1.04000,     0,     1.200,   0.02040,   0.33060,   0.00000,   0.00000,1.00000,1,    0.4,     1.200,     0.000,   7,1.0000
 10674,'5 ',     1.380,    -1.770,    -1.770,    -2.300,1.04000,     0,     4.600,   0.02570,   0.73700,   0.00000,   0.00000,1.00000,0,    1.7,     4.600,     0.000,   7,1.0000
 11204,'1 ',     1.000,     0.000,     0.000,     0.000,1.00000,     0,     1.600,   0.00000,   0.20000,   0.01000,   0.06000,1.00000,0,  100.0,     1.000,     0.000,   2,1.0000
 11271,'1 ',     7.560,     0.000,     0.000,     0.000,1.04000,     0,    28.000,   0.00320,   0.12400,   0.00000,   0.00000,1.00000,1,    7.9,    25.200,     0.000,   7,1.0000
 12371,'1 ',     9.450,    -7.000,     7.000,    -7.000,1.00000,  1231,    32.000,   0.02570,   0.73700,   0.00000,   0.00000,1.00000,1,    7.0,    31.500,     0.000,   7,1.0000
 12372,'2 ',     3.150,     0.000,     0.000,     0.000,1.00000,  1231,    10.000,   0.02570,   0.73700,   0.00000,   0.00000,1.00000,1,    3.5,    10.500,     0.000,   7,1.0000
 12571,'1 ',     5.835,     0.000,     0.000,     0.000,1.00000,  1251,    25.050,   0.00920,   0.16210,   0.00000,   0.00000,1.00000,1,    6.4,    19.450,     0.000,   7,1.0000
 12572,'TW',     0.900,    -0.990,     0.990,    -0.990,1.00000,  1251,     3.340,   0.00920,   0.16210,   0.00000,   0.00000,1.00000,1,    1.0,     3.000,     0.000,   7,1.0000
 12573,'TW',     2.700,    -2.960,     2.960,    -2.960,1.00000,  1251,    10.020,   0.00920,   0.16210,   0.00000,   0.00000,1.00000,1,    3.0,     9.000,     0.000,   7,1.0000
 12872,'DW',     2.520,    -0.592,     0.000,    -2.760,1.00000,  1281,     9.200,   0.02570,   0.73700,   0.00000,   0.00000,1.00000,1,    2.6,     8.400,     0.000,   7,1.0000
 12873,'1 ',     5.865,     0.000,     0.000,     0.000,1.00000,  1281,    20.700,   0.02570,   0.73700,   0.00000,   0.00000,1.00000,1,    6.1,    19.550,     0.000,   7,1.0000
 12874,'1 ',     2.550,     0.000,     0.000,     0.000,1.00000,  1281,     8.500,   0.00210,   0.08600,   0.00000,   0.00000,1.00000,1,    2.7,     8.500,     0.000,   7,1.0000
 13434,'10',     4.300,     0.000,     0.000,     0.000,1.00000,     0,     4.500,   0.00000,   0.20000,   0.00000,   0.10000,1.00000,0,    1.0,     4.300,     0.000,   1,1.0000
 13471,'1 ',     0.198,     0.000,     0.000,     0.000,1.00000,  1341,     0.660,   0.02040,   0.33060,   0.00000,   0.00000,1.00000,1,    0.2,     0.660,     0.000,   7,1.0000
 13472,'DW',     0.765,     0.000,     0.000,    -0.840,1.00000,  1341,     2.700,   0.03020,   0.86600,   0.00000,   0.00000,1.00000,1,    0.8,     2.550,     0.000,   7,1.0000
 13473,'4 ',     3.000,     0.000,     0.000,     0.000,1.00000,  1341,    10.000,   0.00320,   0.12400,   0.00000,   0.00000,1.00000,1,    4.7,    10.000,     0.000,   7,1.0000
 13475,'6 ',     2.295,     0.000,     0.000,     0.000,1.00000,  1341,     7.650,   0.00730,   0.13500,   0.00000,   0.00000,1.00000,1,    2.4,     7.650,     0.000,   7,1.0000
 13476,'3 ',     3.570,     0.000,     0.000,     0.000,1.00000,  1341,    11.500,   0.02570,   0.73700,   0.00000,   0.00000,1.00000,1,    3.7,    11.900,     0.000,   7,1.0000
 13477,'2 ',     0.765,     0.000,     0.000,     0.000,1.00000,  1341,     2.700,   0.03020,   0.86600,   0.00000,   0.00000,1.00000,1,    0.8,     2.550,     0.000,   7,1.0000
 13479,'9 ',     1.020,     0.000,     0.000,     0.000,1.00000,     0,     3.400,   0.00730,   0.13500,   0.00000,   0.00000,1.00000,1,    1.1,     3.400,     0.000,   7,1.0000
 14073,'3 ',     1.935,    -2.400,    -2.400,    -2.400,1.04000,     0,     7.611,   0.02040,   0.33060,   0.00000,   0.00000,1.00000,1,    2.0,     6.450,     0.000,   7,1.0000
 14471,'1 ',     1.200,     0.000,     0.000,     0.000,1.04000,     0,     4.000,   0.00320,   0.12400,   0.00000,   0.00000,1.00000,1,    1.4,     4.000,     0.000,   7,1.0000
 14472,'1 ',     0.255,     0.000,     0.000,     0.000,1.00000,     0,     0.850,   0.00210,   0.08600,   0.00000,   0.00000,1.00000,1,    0.1,     0.850,     0.000,   1,1.0000
 14604,'1 ',     4.800,     0.000,     0.000,     0.000,1.05000,     0,     7.000,   0.00000,   0.15000,   0.00000,   0.10000,1.00000,0,    2.0,     4.800,     0.000,   5,1.0000
 14871,'1 ',     0.510,     0.000,     0.000,     0.000,1.04000,     0,     4.600,   0.02570,   0.73700,   0.00000,   0.00000,1.00000,1,    0.5,     1.700,     0.000,   7,1.0000
 15573,'1 ',     6.000,     0.000,     0.000,     0.000,1.04000,     0,    23.000,   0.02570,   0.73700,   0.00000,   0.00000,1.00000,1,    6.2,    20.000,     0.000,   7,1.0000
 15771,'1 ',     0.594,    -0.300,    -0.300,    -0.300,1.00000,  3581,     1.980,   0.02040,   0.33060,   0.00000,   0.00000,1.00000,1,    1.5,     1.980,     0.000,   7,1.0000
 15772,'1 ',     0.900,    -1.920,    -1.920,    -1.920,1.00000,  3581,     3.000,   0.02040,   0.33060,   0.00000,   0.00000,1.00000,1,    1.5,     3.000,     0.000,   7,1.0000
 16371,'1 ',     1.020,     0.000,     0.000,     0.000,1.00000,     0,     3.400,   0.00730,   0.13500,   0.00000,   0.00000,1.00000,1,    1.1,     3.400,     0.000,   7,1.0000
 16372,'2 ',     1.020,     0.000,     0.000,     0.000,1.00000,     0,     3.400,   0.00730,   0.13500,   0.00000,   0.00000,1.00000,1,    1.1,     3.400,     0.000,   7,1.0000
 16373,'3 ',     2.040,     0.000,     0.000,     0.000,1.00000,     0,     6.800,   0.00730,   0.13500,   0.00000,   0.00000,1.00000,1,    2.1,     6.800,     0.000,   7,1.0000
 16374,'4 ',     2.295,     0.000,     0.000,     0.000,1.00000,     0,     7.650,   0.00210,   0.08600,   0.00000,   0.00000,1.00000,1,    2.4,     7.650,     0.000,   7,1.0000
 16375,'1 ',     1.188,     0.000,     0.000,     0.000,1.00000,     0,     4.250,   0.00210,   0.08600,   0.00000,   0.00000,1.00000,1,    1.3,     3.960,     0.000,   7,1.0000
 16376,'6 ',     1.485,     0.000,     0.000,     0.000,1.00000,     0,     5.100,   0.00210,   0.08600,   0.00000,   0.00000,1.00000,1,    1.5,     4.950,     0.000,   7,1.0000
 16377,'1 ',     2.700,     0.000,     0.000,     0.000,1.00000,     0,     9.200,   0.02570,   0.73700,   0.00000,   0.00000,1.00000,1,    3.0,     9.000,     0.000,   7,1.0000
 16379,'2 ',     0.087,     0.000,     0.000,     0.000,1.00000,     0,     0.323,   0.00320,   0.12400,   0.00000,   0.00000,1.00000,1,    1.3,     0.290,     0.000,   7,1.0000
 16571,'1 ',    11.340,     0.000,     0.000,     0.000,1.00000,  1651,    40.000,   0.02570,   0.73700,   0.00000,   0.00000,1.00000,1,   12.6,    37.800,     0.000,   7,1.0000
 16670,'1 ',     1.350,    -1.411,     0.000,    -3.070,1.00000,     0,     4.500,   0.03020,   0.86600,   0.00000,   0.00000,1.00000,1,    2.9,     4.500,     0.000,   7,1.0000
 16671,'1 ',     1.020,     0.000,     0.000,     0.000,1.04000,     0,     3.400,   0.00730,   0.13500,   0.00000,   0.00000,1.00000,1,    1.1,     3.400,     0.000,   7,1.0000
 16672,'2 ',     0.477,    -0.560,    -0.560,    -0.560,1.04000,     0,     1.700,   0.00730,   0.13500,   0.00000,   0.00000,1.00000,1,    0.5,     1.590,     0.000,   7,1.0000
 16674,'1 ',     5.610,     0.000,     0.000,     0.000,1.04000,     0,    18.700,   0.00730,   0.13500,   0.00000,   0.00000,1.00000,1,    5.8,    18.700,     0.000,   7,1.0000
 16675,'2 ',     2.400,    -2.650,    -2.650,    -2.650,1.04000,     0,     8.000,   0.02690,   0.76900,   0.00000,   0.00000,1.00000,1,    2.7,     8.000,     0.000,   7,1.0000
 16873,'3 ',     8.000,     0.000,     7.000,    -1.000,1.00000,  1681,    11.500,   0.00000,   0.25000,   0.00000,   0.00000,1.00000,0,    7.0,     8.000,     2.000,   3,1.0000
 17073,'3 ',    22.500,     0.000,    15.000,    -5.000,1.00000,  1701,    30.000,   0.00410,   0.20000,   0.00000,   0.00000,1.00000,0,    7.0,    22.500,     5.000,   3,1.0000
 17074,'4 ',    22.500,     0.000,    23.000,   -25.000,1.00000,  1701,    35.500,   0.00410,   0.18000,   0.00000,   0.00000,1.00000,0,    7.0,    22.500,     5.000,   3,1.0000
 17075,'7 ',     0.594,    -0.800,    -0.800,    -0.800,1.00000,     0,     1.980,   0.02040,   0.33060,   0.00000,   0.00000,1.00000,1,    0.6,     1.980,     0.000,   7,1.0000
 17077,'8 ',     0.006,     0.000,     0.000,     0.000,1.00000,     0,     1.200,   0.03020,   0.86600,   0.00000,   0.00000,1.00000,1,    0.3,     0.020,     0.000,   7,1.0000
 17671,'1 ',    10.000,     0.000,     7.000,    -3.000,1.00000,  1701,    12.500,   0.00000,   0.15000,   0.00000,   0.00000,1.00000,0,    7.0,    10.000,     3.000,   3,1.0000
 17672,'2 ',    10.000,     0.000,     7.000,    -3.000,1.00000,  1701,    12.500,   0.00000,   0.13500,   0.00000,   0.00000,1.00000,0,    7.0,    10.000,     3.000,   3,1.0000
 18471,'1 ',     1.497,     0.000,     0.000,     0.000,1.04000,     0,     5.200,   0.00550,   0.14300,   0.00000,   0.00000,1.00000,1,    1.5,     4.990,     0.000,   7,1.0000
 19081,'1 ',     0.765,     0.000,     0.000,     0.000,1.04000,     0,     2.550,   0.00730,   0.13500,   0.00000,   0.00000,1.00000,1,    0.8,     2.550,     0.000,   7,1.0000
 19082,'2 ',     0.510,     0.000,     0.000,     0.000,1.04000,     0,     1.700,   0.00730,   0.13500,   0.00000,   0.00000,1.00000,1,    0.5,     1.700,     0.000,   7,1.0000
 19083,'1 ',     1.497,     0.000,     0.000,     0.000,1.04000,     0,     6.900,   0.02570,   0.73700,   0.00000,   0.00000,1.00000,1,    1.6,     4.990,     0.000,   7,1.0000
 19084,'2 ',     1.350,    -1.500,    -1.500,    -1.500,1.04000,     0,     4.600,   0.02570,   0.73700,   0.00000,   0.00000,1.00000,1,    1.6,     4.500,     0.000,   7,1.0000
 19085,'1 ',     6.300,    -7.000,    -7.000,    -7.000,1.04000,     0,    23.824,   0.00220,   0.41940,   0.00000,   0.00000,1.00000,1,    6.6,    21.000,     0.000,   7,1.0000
 19317,'SC',     0.000,    -6.000,     6.000,    -6.000,1.00000,  1931,     6.000,   0.00000,9999.00000,   0.00000,   0.00000,1.00000,1,    6.0,     0.000,     0.000,   1,1.0000
 19371,'1 ',     7.125,     0.000,     0.000,     0.000,1.00000,  1931,    29.780,   0.00220,   0.41940,   0.00000,   0.00000,1.00000,1,   11.0,    23.750,     0.000,   7,1.0000
 19372,'2 ',     3.315,     0.000,     0.000,     0.000,1.00000,  1931,    11.050,   0.00730,   0.13500,   0.00000,   0.00000,1.00000,1,   11.6,    11.050,     0.000,   7,1.0000
 19471,'1 ',    60.000,   -19.701,    94.000,   -50.000,1.00000,  1941,   153.000,   0.00000,   0.15300,   0.00000,   0.00000,1.00000,1,   75.0,   133.500,    60.000,   4,1.0000
 19472,'5 ',    58.274,     0.000,    38.000,   -23.000,1.00000,  1941,    66.625,   0.00200,   0.14450,   0.00000,   0.00000,1.00000,0,   41.0,    58.274,    19.700,   1,1.0000
 19473,'3 ',    58.274,     0.000,    40.000,   -23.000,1.00000,  1941,    66.625,   0.00200,   0.14450,   0.00000,   0.00000,1.00000,0,   41.0,    58.274,    19.700,   1,1.0000
 19601,'2 ',     1.755,     0.000,     0.000,     0.000,1.00000,     0,     6.500,   0.00000,   0.21900,   0.00000,   0.00000,1.00000,1,  100.0,     5.850,     0.000,   2,1.0000
 19771,'1 ',    12.750,     0.000,     0.000,     0.000,1.00000,  1971,    46.875,   0.00900,   0.16600,   0.00000,   0.00000,1.00000,1,    8.5,    42.500,     0.000,   7,1.0000
 19772,'TW',     2.550,    -1.312,     2.790,    -2.790,1.00000,  1971,     8.500,   0.00730,   0.13500,   0.00000,   0.00000,1.00000,1,    2.8,     8.500,     0.000,   7,1.0000
 19773,'TW',     9.000,    -4.619,     9.860,    -9.860,1.00000,  1971,    38.714,   0.00220,   0.41940,   0.00000,   0.00000,1.00000,1,    9.9,    30.000,     0.000,   7,1.0000
 19971,'1 ',     6.000,    -6.700,     6.700,    -6.700,1.00000,  1991,    20.700,   0.02570,   0.73700,   0.00000,   0.00000,1.00000,1,    6.7,    20.000,     0.000,   7,1.0000
 19972,'2 ',     0.690,     0.000,     0.000,     0.000,1.00000,  1991,     2.300,   0.02570,   0.73700,   0.00000,   0.00000,1.00000,1,    0.7,     2.300,     0.000,   7,1.0000
 19973,'3 ',     0.690,     0.000,     0.000,     0.000,1.00000,  1991,     2.300,   0.02570,   0.73700,   0.00000,   0.00000,1.00000,1,    1.1,     2.300,     0.000,   7,1.0000
 19974,'4 ',     4.830,    -4.000,     4.000,    -4.000,1.00000,  1991,    16.100,   0.02570,   0.73700,   0.00000,   0.00000,1.00000,1,    4.0,    16.100,     0.000,   7,1.0000
 21071,'2 ',     0.150,     0.000,     0.000,     0.000,1.04000,     0,     0.850,   0.00730,   0.13500,   0.00000,   0.00000,1.00000,1,    0.2,     0.500,     0.000,   7,1.0000
 21371,'TW',     8.550,    -9.500,     9.500,    -9.500,1.00000,  2131,    31.730,   0.00920,   0.16210,   0.00000,   0.00000,1.00000,1,    9.5,    28.500,     0.000,   7,1.0000
 21871,'1 ',     0.510,     0.000,     0.000,     0.000,1.00000,     0,     1.700,   0.00730,   0.13500,   0.00000,   0.00000,1.00000,1,    0.5,     1.700,     0.000,   7,1.0000
 21872,'2 ',     0.750,    -0.990,    -0.990,    -1.280,1.00000,     0,     2.700,   0.03020,   0.86600,   0.00000,   0.00000,1.00000,1,    0.9,     2.500,     0.000,   7,1.0000
 22273,'DW',     1.350,    -0.788,     0.000,    -1.480,1.00000,     0,     4.000,   0.02690,   0.76900,   0.00000,   0.00000,1.00000,1,    1.4,     4.500,     0.000,   7,1.0000
 22274,'2 ',     1.782,    -2.400,    -2.400,    -2.400,1.00000,     0,     5.940,   0.02040,   0.33060,   0.00000,   0.00000,1.00000,1,    1.9,     5.940,     0.000,   7,1.0000
 22275,'4 ',     1.275,     0.000,     0.000,     0.000,1.00000,     0,     4.250,   0.00730,   0.13500,   0.00000,   0.00000,1.00000,1,    1.3,     4.250,     0.000,   7,1.0000
 22276,'3 ',     1.785,     0.000,     0.000,     0.000,1.00000,     0,     6.680,   0.00920,   0.16210,   0.00000,   0.00000,1.00000,1,    1.9,     5.950,     0.000,   7,1.0000
 22278,'1 ',     1.386,    -1.000,    -1.000,    -1.000,1.00000,     0,     4.620,   0.02040,   0.33060,   0.00000,   0.00000,1.00000,1,    1.4,     4.620,     0.000,   7,1.0000
 22292,'5 ',     6.000,     0.000,     0.000,     0.000,1.00000,     0,     6.000,   0.00000,   0.20000,   0.00000,   0.10000,1.00000,0,    2.0,     6.000,     0.000,   1,1.0000
 22371,'1 ',    17.850,     0.000,     0.000,     0.000,1.00000,  2231,    59.500,   0.00730,   0.13500,   0.00000,   0.00000,1.00000,1,   12.0,    59.500,     0.000,   7,1.0000
 22471,'1 ',     0.765,     0.000,     0.000,     0.000,1.04000,     0,     2.550,   0.00730,   0.13500,   0.00000,   0.00000,1.00000,1,    0.8,     2.550,     0.000,   7,1.0000
 22472,'2 ',     1.275,     0.000,     0.000,     0.000,1.04000,     0,     4.250,   0.00730,   0.13500,   0.00000,   0.00000,1.00000,1,    1.3,     4.250,     0.000,   7,1.0000
 22671,'1 ',    52.100,     0.000,    32.600,   -22.700,1.02000,  2261,    62.000,   0.00000,   0.17900,   0.00000,   0.00000,1.00000,0,   32.6,    52.100,     1.200,   3,1.0000
 22672,'2 ',    52.100,     0.000,    32.600,   -22.700,1.02000,  2261,    62.000,   0.00000,   0.17900,   0.00000,   0.00000,1.00000,0,   32.6,    52.100,     1.200,   3,1.0000
 22871,'1 ',     0.720,    -0.840,    -0.840,    -1.090,1.00000,     0,     2.400,   0.02690,   0.76900,   0.00000,   0.00000,1.00000,1,    0.8,     2.400,     0.000,   7,1.0000
 26771,'1 ',     7.800,   -10.000,    10.000,   -10.000,1.00000,  1631,    26.000,   0.00900,   0.14800,   0.00000,   0.00000,1.00000,1,   10.0,    26.000,     0.000,   7,1.0000
 26772,'1 ',     1.800,     0.000,     0.000,     0.000,1.00000,  2671,     6.000,   0.00900,   0.14800,   0.00000,   0.00000,1.00000,1,    2.0,     6.000,     6.000,   1,1.0000
 26773,'1 ',     6.600,   -10.000,    10.000,   -10.000,1.00000,  1631,    22.000,   0.00900,   0.14800,   0.00000,   0.00000,1.00000,1,   10.0,    22.000,     0.000,   7,1.0000
 26774,'1 ',     1.800,     0.000,     0.000,     0.000,1.00000,  2671,     6.000,   0.00900,   0.14800,   0.00000,   0.00000,1.00000,1,  100.0,     6.000,     6.000,   1,1.0000
 27071,'1 ',     0.240,     0.000,     0.000,     0.000,1.00000,     0,     0.800,   0.02690,   0.76900,   0.00000,   0.00000,1.00000,1,  100.0,     0.800,     0.000,   7,1.0000
 27204,'5 ',     4.000,     0.000,     1.000,    -1.000,1.04000,     0,     5.000,   0.00000,   0.27000,   0.00000,   0.10000,1.00000,0,    1.0,     4.000,     0.000,   3,1.0000
 27361,'SC',     0.000,    -5.762,    12.300,   -12.300,1.00000,  1971,    12.300,   0.00000,9999.00000,   0.00000,   0.00000,1.00000,1,   12.3,     0.000,     0.000,   1,1.0000
 27371,'1 ',     3.840,     0.000,     0.000,     0.000,1.00000,  1971,    14.450,   0.00730,   0.13500,   0.00000,   0.00000,1.00000,1,    4.0,    12.800,     0.000,   7,1.0000
 27372,'2 ',     5.100,     0.000,     0.000,     0.000,1.00000,  1971,    18.750,   0.00900,   0.16600,   0.00000,   0.00000,1.00000,1,    5.3,    17.000,     0.000,   7,1.0000
 27471,'1 ',    57.000,     0.000,    42.000,    -3.000,1.00000,  2741,    75.000,   0.00000,   0.16000,   0.00000,   0.00000,1.00000,0,   42.0,    57.000,    25.000,   3,1.0000
 27472,'2 ',    51.800,     0.000,    40.000,    -3.000,1.00000,  2741,    75.000,   0.00000,   0.16000,   0.00000,   0.00000,1.00000,0,   40.0,    51.800,    25.000,   3,1.0000
 27473,'3 ',   121.000,     0.000,    82.000,   -48.000,1.00000,  2742,   150.000,   0.00000,   0.14600,   0.00000,   0.00000,1.00000,0,   82.0,   121.000,    30.000,   3,1.0000
 27771,'1 ',    12.368,    -6.090,    13.000,   -13.610,1.00000,  1971,    41.400,   0.00000,   0.50400,   0.00000,   0.00000,1.00000,1,   13.0,    41.225,     0.000,   7,1.0000
 27772,'2 ',     3.000,    -2.000,    -2.000,    -2.000,1.00000,     0,    11.912,   0.00220,   0.41940,   0.00000,   0.00000,1.00000,1,    3.1,    10.000,     0.000,   7,1.0000
 27773,'3 ',     1.500,    -1.000,    -1.000,    -1.000,1.00000,     0,     4.600,   0.02570,   0.73700,   0.00000,   0.00000,1.00000,1,    1.6,     5.000,     0.000,   7,1.0000
 27774,'4 ',     5.400,    -3.000,    -3.000,    -3.000,1.00000,  1971,    18.400,   0.00000,   0.50400,   0.00000,   0.00000,1.00000,1,    6.1,    18.000,     0.000,   7,1.0000
 27871,'1 ',     0.990,    -0.700,    -0.700,    -0.700,1.00000,     0,     3.300,   0.02040,   0.33060,   0.00000,   0.00000,1.00000,1,    1.0,     3.300,     0.000,   7,1.0000
 28071,'1 ',     4.500,    -6.000,    -6.000,    -6.000,1.00000,  2801,    15.000,   0.02040,   0.33060,   0.00000,   0.00000,1.00000,1,    6.6,    15.000,     0.000,   7,1.0000
 28271,'1 ',     0.900,    -1.200,    -1.200,    -1.200,1.04000,     0,     3.340,   0.00920,   0.16210,   0.00000,   0.00000,1.00000,1,    0.9,     3.000,     0.000,   7,1.0000
 28571,'1 ',   111.000,  -112.370,   282.100,  -190.000,1.00000,  1062,   535.500,   0.00280,   0.18780,   0.00000,   0.00000,1.00000,1,  282.1,   450.500,   110.100,   4,1.0000
 28872,'1 ',     3.150,     0.000,     0.000,     0.000,1.04000,     0,    13.800,   0.00900,   0.14800,   0.00000,   0.00000,1.00000,1,    3.3,    10.500,     0.000,   7,1.0000
 28873,'DW',     4.950,    -5.420,     5.420,    -5.420,1.00000,     0,    18.400,   0.00900,   0.14800,   0.00000,   0.00000,1.00000,1,    5.2,    16.500,     0.000,   7,1.0000
 28874,'1 ',     7.800,     0.000,     0.000,     0.000,1.00000,     0,    27.600,   0.00770,   0.18710,   0.00000,   0.00000,1.00000,1,    7.9,    26.000,     0.000,   7,1.0000
 29671,'ST',   123.000,     0.000,   107.000,   -53.000,1.00000,  2562,   150.000,   0.00000,   0.15500,   0.00000,   0.00000,1.00000,0,   90.0,   123.000,    40.000,   4,1.0000
 29672,'CT',   138.000,   -87.000,   181.000,   -87.000,1.00000,  2562,   288.000,   0.00000,   0.14500,   0.00000,   0.00000,1.00000,1,  173.0,   236.200,   138.000,   4,1.0000
 29673,'2 ',   400.000,  -170.000,   255.000,  -170.000,1.00000,  2042,   473.000,   0.00500,   0.21300,   0.00000,   0.00000,1.00000,0,  249.0,   400.000,   194.000,   4,1.0000
 30671,'1 ',    15.000,     0.000,    13.000,    -4.000,1.00000,  3061,    21.400,   0.00000,   0.16000,   0.00000,   0.00000,1.00000,0,    3.0,    15.000,     4.000,   3,1.0000
 30671,'2 ',     4.000,     0.000,     3.000,    -1.000,1.00000,  3061,     5.700,   0.00000,   0.14000,   0.00000,   0.00000,1.00000,0,    3.0,     4.000,     1.000,   3,1.0000
 31071,'1 ',     0.765,     0.000,     0.000,     0.000,1.00000,     0,     2.550,   0.00730,   0.13500,   0.00000,   0.00000,1.00000,1,    0.8,     2.550,     0.000,   7,1.0000
 31074,'1 ',     0.765,     0.000,     0.000,     0.000,1.04000,     0,     2.550,   0.00730,   0.13500,   0.00000,   0.00000,1.00000,1,    0.8,     2.550,     0.000,   7,1.0000
 31271,'1 ',   163.000,  -100.000,   295.000,  -100.000,1.00000,  3122,   500.000,   0.00300,   0.19000,   0.00000,   0.00000,1.00000,1,  200.0,   409.900,   163.000,   4,1.0000
...